<?xml version="1.0" encoding="UTF-8"?>

<!-- generated on 2025-06-27 17:36:11.451973 by randomTrips.py UNKNOWN
<configuration>
    <net-file value="./data/map.net.xml"/>
    <route-file value="./data/route.rou.xml"/>
    <trip-attributes value="departLane=&quot;best&quot;"/>
    <end value="200.0"/>
</configuration>
-->

<routes xmlns:xsi="http://www.w3.org/2001/XMLSchema-instance" xsi:noNamespaceSchemaLocation="http://sumo.dlr.de/xsd/routes_file.xsd">
    <trip id="0" depart="0.00" from="37372750#1" to="-116564899#2" departLane="best"/>
    <trip id="1" depart="1.00" from="-37417655#1" to="-37417651#2" departLane="best"/>
    <trip id="2" depart="2.00" from="37417651#3" to="37413117#1" departLane="best"/>
    <trip id="3" depart="3.00" from="434722734#0" to="-116565244#3" departLane="best"/>
    <trip id="4" depart="4.00" from="-997370398" to="-116564899#2" departLane="best"/>
    <trip id="5" depart="5.00" from="-37417651#3" to="1409808438#0" departLane="best"/>
    <trip id="6" depart="6.00" from="-116564899#2" to="-37417651#0" departLane="best"/>
    <trip id="7" depart="7.00" from="37372759#0" to="249168789#2" departLane="best"/>
    <trip id="8" depart="8.00" from="-37417651#3" to="34907371#1" departLane="best"/>
    <trip id="9" depart="9.00" from="37417682#1" to="-116564899#0" departLane="best"/>
    <trip id="10" depart="10.00" from="37417682#0" to="37417651#2" departLane="best"/>
    <trip id="11" depart="11.00" from="-37730078" to="-249168789#4" departLane="best"/>
    <trip id="12" depart="12.00" from="986554300#0" to="-37730069#2" departLane="best"/>
    <trip id="13" depart="13.00" from="-1165942206#1" to="-1165942206#0" departLane="best"/>
    <trip id="14" depart="14.00" from="434722685#0" to="34907371#3" departLane="best"/>
    <trip id="15" depart="15.00" from="37417682#1" to="37417651#5" departLane="best"/>
    <trip id="16" depart="16.00" from="1409808438#0" to="986554300#2" departLane="best"/>
    <trip id="17" depart="17.00" from="-986554300#0" to="249168789#3" departLane="best"/>
    <trip id="18" depart="18.00" from="37730069#1" to="37372750#1" departLane="best"/>
    <trip id="19" depart="19.00" from="434722685#1" to="34907371#0" departLane="best"/>
    <trip id="20" depart="20.00" from="37417651#0" to="-116565137" departLane="best"/>
    <trip id="21" depart="21.00" from="-37417651#4" to="-37417682#0" departLane="best"/>
    <trip id="22" depart="22.00" from="-116565244#2" to="-37417651#3" departLane="best"/>
    <trip id="23" depart="23.00" from="-1165942206#1" to="-37417655#1" departLane="best"/>
    <trip id="24" depart="24.00" from="37372750#1" to="-986554300#1" departLane="best"/>
    <trip id="25" depart="25.00" from="-986554299" to="-37417651#1" departLane="best"/>
    <trip id="26" depart="26.00" from="-37417655#1" to="779083313#1" departLane="best"/>
    <trip id="27" depart="27.00" from="37372759#0" to="34907371#3" departLane="best"/>
    <trip id="28" depart="28.00" from="-249168789#4" to="37417651#5" departLane="best"/>
    <trip id="29" depart="29.00" from="-249168789#4" to="-997370398" departLane="best"/>
    <trip id="30" depart="30.00" from="997370398" to="37372759#1" departLane="best"/>
    <trip id="31" depart="31.00" from="249168789#1" to="37417651#1" departLane="best"/>
    <trip id="32" depart="32.00" from="37730069#2" to="37417682#1" departLane="best"/>
    <trip id="33" depart="33.00" from="-37417651#4" to="-116565033" departLane="best"/>
    <trip id="34" depart="34.00" from="-37730069#1" to="-37417655#0" departLane="best"/>
    <trip id="35" depart="35.00" from="-37417651#2" to="986554299" departLane="best"/>
    <trip id="36" depart="36.00" from="434722685#2" to="-37730069#0" departLane="best"/>
    <trip id="37" depart="37.00" from="37372759#1" to="-997370399" departLane="best"/>
    <trip id="38" depart="38.00" from="434722741#1" to="116565244#0" departLane="best"/>
    <trip id="39" depart="39.00" from="-37417655#0" to="-37417651#5" departLane="best"/>
    <trip id="40" depart="40.00" from="249168789#2" to="-37417651#6" departLane="best"/>
    <trip id="41" depart="41.00" from="249168789#4" to="434722734#0" departLane="best"/>
    <trip id="42" depart="42.00" from="-986554300#2" to="-37417651#2" departLane="best"/>
    <trip id="43" depart="43.00" from="997370399" to="1409808438#0" departLane="best"/>
    <trip id="44" depart="44.00" from="-116565244#3" to="-116565137" departLane="best"/>
    <trip id="45" depart="45.00" from="-1409808438#0" to="37372750#2" departLane="best"/>
    <trip id="46" depart="46.00" from="37417655#1" to="116564899#2" departLane="best"/>
    <trip id="47" depart="47.00" from="-116565244#1" to="-997370398" departLane="best"/>
    <trip id="48" depart="48.00" from="997370399" to="249168789#0" departLane="best"/>
    <trip id="49" depart="49.00" from="986554300#2" to="434722685#1" departLane="best"/>
    <trip id="50" depart="50.00" from="-116564899#1" to="37417651#4" departLane="best"/>
    <trip id="51" depart="51.00" from="37375363#0" to="249168789#1" departLane="best"/>
    <trip id="52" depart="52.00" from="-37417655#1" to="37372759#1" departLane="best"/>
    <trip id="53" depart="53.00" from="-1409808438#0" to="116565033" departLane="best"/>
    <trip id="54" depart="54.00" from="116564899#2" to="986554300#0" departLane="best"/>
    <trip id="55" depart="55.00" from="434722685#2" to="-37417651#6" departLane="best"/>
    <trip id="56" depart="56.00" from="116565244#2" to="-37375363#0" departLane="best"/>
    <trip id="57" depart="57.00" from="434722741#1" to="434722685#2" departLane="best"/>
    <trip id="58" depart="58.00" from="-37730069#0" to="37372759#1" departLane="best"/>
    <trip id="59" depart="59.00" from="34907371#1" to="-249168789#3" departLane="best"/>
    <trip id="60" depart="60.00" from="37417651#5" to="249168789#1" departLane="best"/>
    <trip id="61" depart="61.00" from="37417655#0" to="249168789#0" departLane="best"/>
    <trip id="62" depart="62.00" from="-116564899#0" to="-37730069#1" departLane="best"/>
    <trip id="63" depart="63.00" from="-116564899#1" to="779083313#1" departLane="best"/>
    <trip id="64" depart="64.00" from="434722729" to="37730078" departLane="best"/>
    <trip id="65" depart="65.00" from="-37730069#1" to="-116565244#0" departLane="best"/>
    <trip id="66" depart="66.00" from="434722729" to="986554299" departLane="best"/>
    <trip id="67" depart="67.00" from="-116565244#3" to="116565244#3" departLane="best"/>
    <trip id="68" depart="68.00" from="-116565244#1" to="37417655#1" departLane="best"/>
    <trip id="69" depart="69.00" from="37417651#6" to="-249168789#1" departLane="best"/>
    <trip id="70" depart="70.00" from="116565137" to="249168789#2" departLane="best"/>
    <trip id="71" depart="71.00" from="-37417655#0" to="434722685#2" departLane="best"/>
    <trip id="72" depart="72.00" from="-997370398" to="-37417651#1" departLane="best"/>
    <trip id="73" depart="73.00" from="1409808438#0" to="37417651#5" departLane="best"/>
    <trip id="74" depart="74.00" from="-37417651#1" to="-37730069#0" departLane="best"/>
    <trip id="75" depart="75.00" from="997370399" to="37372759#2" departLane="best"/>
    <trip id="76" depart="76.00" from="116564899#0" to="1409808438#1" departLane="best"/>
    <trip id="77" depart="77.00" from="-1409808438#1" to="-37417651#3" departLane="best"/>
    <trip id="78" depart="78.00" from="-37730078" to="34907371#1" departLane="best"/>
    <trip id="79" depart="79.00" from="-37417651#4" to="-37417651#2" departLane="best"/>
    <trip id="80" depart="80.00" from="-116565244#1" to="37372750#2" departLane="best"/>
    <trip id="81" depart="81.00" from="-37417651#4" to="434722734#1" departLane="best"/>
    <trip id="82" depart="82.00" from="434722685#1" to="-116565244#1" departLane="best"/>
    <trip id="83" depart="83.00" from="-37417651#5" to="37375363#1" departLane="best"/>
    <trip id="84" depart="84.00" from="-37417651#2" to="-249168789#1" departLane="best"/>
    <trip id="85" depart="85.00" from="779083313#0" to="249168789#4" departLane="best"/>
    <trip id="86" depart="86.00" from="116565137" to="37417682#1" departLane="best"/>
    <trip id="87" depart="87.00" from="37417682#1" to="-37375363#1" departLane="best"/>
    <trip id="88" depart="88.00" from="-1165942206#1" to="116565033" departLane="best"/>
    <trip id="89" depart="89.00" from="-997370398" to="116565244#1" departLane="best"/>
    <trip id="90" depart="90.00" from="37417651#2" to="37375363#1" departLane="best"/>
    <trip id="91" depart="91.00" from="997370398" to="-1165942206#0" departLane="best"/>
    <trip id="92" depart="92.00" from="-986554300#2" to="-986554299" departLane="best"/>
    <trip id="93" depart="93.00" from="434722685#1" to="-37417651#5" departLane="best"/>
    <trip id="94" depart="94.00" from="-37375363#1" to="116565137" departLane="best"/>
    <trip id="95" depart="95.00" from="-997370398" to="-37417655#1" departLane="best"/>
    <trip id="96" depart="96.00" from="-37417651#6" to="434722741#2" departLane="best"/>
    <trip id="97" depart="97.00" from="116564899#1" to="434722685#1" departLane="best"/>
    <trip id="98" depart="98.00" from="249168789#0" to="-116565137" departLane="best"/>
    <trip id="99" depart="99.00" from="997370399" to="37730078" departLane="best"/>
    <trip id="100" depart="100.00" from="986554300#1" to="434722741#2" departLane="best"/>
    <trip id="101" depart="101.00" from="434722685#0" to="-37375327" departLane="best"/>
    <trip id="102" depart="102.00" from="116565244#0" to="-37417651#1" departLane="best"/>
    <trip id="103" depart="103.00" from="-986554300#2" to="-116565244#0" departLane="best"/>
    <trip id="104" depart="104.00" from="-986554300#0" to="986554300#3" departLane="best"/>
    <trip id="105" depart="105.00" from="-37417655#0" to="37417682#1" departLane="best"/>
    <trip id="106" depart="106.00" from="116564899#2" to="116564899#2" departLane="best"/>
    <trip id="107" depart="107.00" from="986554300#0" to="997370398" departLane="best"/>
    <trip id="108" depart="108.00" from="249168789#1" to="37417651#4" departLane="best"/>
    <trip id="109" depart="109.00" from="-249168789#3" to="-37417682#1" departLane="best"/>
    <trip id="110" depart="110.00" from="986554300#1" to="34907371#0" departLane="best"/>
    <trip id="111" depart="111.00" from="249168789#0" to="37417655#0" departLane="best"/>
    <trip id="112" depart="112.00" from="-116565244#0" to="34907371#1" departLane="best"/>
    <trip id="113" depart="113.00" from="116565244#2" to="37730082" departLane="best"/>
    <trip id="114" depart="114.00" from="-249168789#3" to="986554300#1" departLane="best"/>
    <trip id="115" depart="115.00" from="-116565244#2" to="-37375363#1" departLane="best"/>
    <trip id="116" depart="116.00" from="34907371#0" to="37413117#1" departLane="best"/>
    <trip id="117" depart="117.00" from="-37417651#5" to="-249168789#0" departLane="best"/>
    <trip id="118" depart="118.00" from="434722734#0" to="-37417651#5" departLane="best"/>
    <trip id="119" depart="119.00" from="34907371#0" to="37372750#1" departLane="best"/>
    <trip id="120" depart="120.00" from="-997370398" to="34907371#1" departLane="best"/>
    <trip id="121" depart="121.00" from="1165942206#0" to="779083313#1" departLane="best"/>
    <trip id="122" depart="122.00" from="-37417651#2" to="37417651#4" departLane="best"/>
    <trip id="123" depart="123.00" from="-37417651#5" to="-997370399" departLane="best"/>
    <trip id="124" depart="124.00" from="37375327" to="-37417682#1" departLane="best"/>
    <trip id="125" depart="125.00" from="-37730069#1" to="37417655#0" departLane="best"/>
    <trip id="126" depart="126.00" from="-116565244#2" to="116565244#0" departLane="best"/>
    <trip id="127" depart="127.00" from="997370399" to="997370398" departLane="best"/>
    <trip id="128" depart="128.00" from="-116565244#2" to="-37417651#1" departLane="best"/>
    <trip id="129" depart="129.00" from="-37417655#0" to="779083313#1" departLane="best"/>
    <trip id="130" depart="130.00" from="434722729" to="434722685#3" departLane="best"/>
    <trip id="131" depart="131.00" from="-986554299" to="-249168789#4" departLane="best"/>
    <trip id="132" depart="132.00" from="37730069#1" to="37417651#2" departLane="best"/>
    <trip id="133" depart="133.00" from="34907371#1" to="986554300#3" departLane="best"/>
    <trip id="134" depart="134.00" from="37372759#1" to="-116564899#0" departLane="best"/>
    <trip id="135" depart="135.00" from="37730069#0" to="-37417682#1" departLane="best"/>
    <trip id="136" depart="136.00" from="37375327" to="986554299" departLane="best"/>
    <trip id="137" depart="137.00" from="-249168789#1" to="-249168789#0" departLane="best"/>
    <trip id="138" depart="138.00" from="-1409808438#0" to="249168789#3" departLane="best"/>
    <trip id="139" depart="139.00" from="-37417655#1" to="34907371#3" departLane="best"/>
    <trip id="140" depart="140.00" from="37417651#1" to="-37417651#0" departLane="best"/>
    <trip id="141" depart="141.00" from="37372750#1" to="-37417651#6" departLane="best"/>
    <trip id="142" depart="142.00" from="116565244#0" to="434722734#1" departLane="best"/>
    <trip id="143" depart="143.00" from="37730069#2" to="-1165942206#0" departLane="best"/>
    <trip id="144" depart="144.00" from="-997370398" to="-37417655#1" departLane="best"/>
    <trip id="145" depart="145.00" from="-116564899#0" to="37417682#0" departLane="best"/>
    <trip id="146" depart="146.00" from="37372750#1" to="-37417651#6" departLane="best"/>
    <trip id="147" depart="147.00" from="37417651#3" to="249168789#3" departLane="best"/>
    <trip id="148" depart="148.00" from="-997370398" to="-116564899#0" departLane="best"/>
    <trip id="149" depart="149.00" from="-116565244#2" to="434722685#3" departLane="best"/>
    <trip id="150" depart="150.00" from="434722741#0" to="249168789#2" departLane="best"/>
    <trip id="151" depart="151.00" from="37730069#1" to="34907371#1" departLane="best"/>
    <trip id="152" depart="152.00" from="-249168789#2" to="-249168789#1" departLane="best"/>
    <trip id="153" depart="153.00" from="-37730069#1" to="434722734#1" departLane="best"/>
    <trip id="154" depart="154.00" from="37417682#0" to="434722685#1" departLane="best"/>
    <trip id="155" depart="155.00" from="434722741#0" to="-37417651#1" departLane="best"/>
    <trip id="156" depart="156.00" from="-37417651#6" to="-1409808438#0" departLane="best"/>
    <trip id="157" depart="157.00" from="37417655#0" to="434722685#3" departLane="best"/>
    <trip id="158" depart="158.00" from="-986554300#2" to="37372750#1" departLane="best"/>
    <trip id="159" depart="159.00" from="-249168789#3" to="779083313#1" departLane="best"/>
    <trip id="160" depart="160.00" from="434722685#1" to="986554300#2" departLane="best"/>
    <trip id="161" depart="161.00" from="37417682#1" to="434722685#3" departLane="best"/>
    <trip id="162" depart="162.00" from="-116564899#2" to="37417651#6" departLane="best"/>
    <trip id="163" depart="163.00" from="-37730069#3" to="779083313#1" departLane="best"/>
    <trip id="164" depart="164.00" from="37417682#0" to="434722685#1" departLane="best"/>
    <trip id="165" depart="165.00" from="37417682#1" to="-37417655#0" departLane="best"/>
    <trip id="166" depart="166.00" from="37417655#1" to="-1409808438#0" departLane="best"/>
    <trip id="167" depart="167.00" from="434722685#2" to="434722685#1" departLane="best"/>
    <trip id="168" depart="168.00" from="-37417651#3" to="37730069#3" departLane="best"/>
    <trip id="169" depart="169.00" from="116565033" to="-37417682#1" departLane="best"/>
    <trip id="170" depart="170.00" from="37417655#1" to="-37417651#3" departLane="best"/>
    <trip id="171" depart="171.00" from="-116564899#2" to="-37375363#1" departLane="best"/>
    <trip id="172" depart="172.00" from="-37730069#3" to="434722685#1" departLane="best"/>
    <trip id="173" depart="173.00" from="986554300#1" to="-37417655#1" departLane="best"/>
    <trip id="174" depart="174.00" from="37372750#1" to="116564899#0" departLane="best"/>
    <trip id="175" depart="175.00" from="997370398" to="249168789#1" departLane="best"/>
    <trip id="176" depart="176.00" from="986554299" to="-249168789#0" departLane="best"/>
    <trip id="177" depart="177.00" from="986554300#2" to="-37375363#0" departLane="best"/>
    <trip id="178" depart="178.00" from="986554300#1" to="-37417655#0" departLane="best"/>
    <trip id="179" depart="179.00" from="-1409808438#0" to="116565033" departLane="best"/>
    <trip id="180" depart="180.00" from="37417651#2" to="-37730069#0" departLane="best"/>
    <trip id="181" depart="181.00" from="34907371#1" to="1409808438#1" departLane="best"/>
    <trip id="182" depart="182.00" from="-986554300#0" to="34907371#0" departLane="best"/>
    <trip id="183" depart="183.00" from="-37417651#6" to="37417651#3" departLane="best"/>
    <trip id="184" depart="184.00" from="-116564899#0" to="434722741#2" departLane="best"/>
    <trip id="185" depart="185.00" from="1409808438#0" to="37417651#4" departLane="best"/>
    <trip id="186" depart="186.00" from="37417651#3" to="37375363#1" departLane="best"/>
    <trip id="187" depart="187.00" from="-37730082" to="-116565244#1" departLane="best"/>
    <trip id="188" depart="188.00" from="37375327" to="-37730069#2" departLane="best"/>
    <trip id="189" depart="189.00" from="-37730069#1" to="37730082" departLane="best"/>
    <trip id="190" depart="190.00" from="37417651#1" to="-37417682#1" departLane="best"/>
    <trip id="191" depart="191.00" from="-37730069#1" to="116564899#1" departLane="best"/>
    <trip id="192" depart="192.00" from="-986554300#2" to="-37417682#0" departLane="best"/>
    <trip id="193" depart="193.00" from="-249168789#0" to="116564899#2" departLane="best"/>
    <trip id="194" depart="194.00" from="986554299" to="37413117#1" departLane="best"/>
    <trip id="195" depart="195.00" from="434722741#0" to="37372750#1" departLane="best"/>
    <trip id="196" depart="196.00" from="-37730069#0" to="249168789#2" departLane="best"/>
    <trip id="197" depart="197.00" from="-116564899#0" to="-37417682#0" departLane="best"/>
    <trip id="198" depart="198.00" from="116564899#0" to="34907371#0" departLane="best"/>
    <trip id="199" depart="199.00" from="37372759#1" to="116565244#1" departLane="best"/>
</routes>
