<?xml version="1.0" encoding="UTF-8"?>

<!-- generated on 2025-06-27 17:36:10 by Eclipse SUMO netconvert Version 1.13.0
<configuration xmlns:xsi="http://www.w3.org/2001/XMLSchema-instance" xsi:noNamespaceSchemaLocation="http://sumo.dlr.de/xsd/netconvertConfiguration.xsd">

    <input>
        <osm-files value="/Users/hechunguang/WebGIS/Streamlit/sumo_streamlit_osm_demo-1/data/map.osm.xml"/>
    </input>

    <output>
        <output-file value="./data/map.net.xml"/>
    </output>

    <projection>
        <proj.utm value="true"/>
    </projection>

    <report>
        <aggregate-warnings value="5"/>
    </report>

</configuration>
-->

<net version="1.9" junctionCornerDetail="5" limitTurnSpeed="5.50" xmlns:xsi="http://www.w3.org/2001/XMLSchema-instance" xsi:noNamespaceSchemaLocation="http://sumo.dlr.de/xsd/net_file.xsd">

    <location netOffset="-548075.37,-4851831.91" convBoundary="0.00,0.00,2852.76,1493.72" origBoundary="87.597877,43.817880,87.633399,43.831309" projParameter="+proj=utm +zone=45 +ellps=WGS84 +datum=WGS84 +units=m +no_defs"/>

    <type id="highway.bridleway" priority="1" numLanes="1" speed="2.78" allow="pedestrian" oneway="1" width="2.00"/>
    <type id="highway.bus_guideway" priority="1" numLanes="1" speed="27.78" allow="bus" oneway="1"/>
    <type id="highway.cycleway" priority="1" numLanes="1" speed="8.33" allow="bicycle" oneway="0" width="1.00"/>
    <type id="highway.footway" priority="1" numLanes="1" speed="2.78" allow="pedestrian" oneway="1" width="2.00"/>
    <type id="highway.ford" priority="1" numLanes="1" speed="2.78" allow="army" oneway="0"/>
    <type id="highway.living_street" priority="2" numLanes="1" speed="2.78" disallow="tram rail_urban rail rail_electric rail_fast ship" oneway="0"/>
    <type id="highway.motorway" priority="14" numLanes="2" speed="39.44" allow="private emergency authority army vip passenger hov taxi bus coach delivery truck trailer motorcycle evehicle custom1 custom2" oneway="1"/>
    <type id="highway.motorway_link" priority="9" numLanes="1" speed="22.22" allow="private emergency authority army vip passenger hov taxi bus coach delivery truck trailer motorcycle evehicle custom1 custom2" oneway="1"/>
    <type id="highway.path" priority="1" numLanes="1" speed="2.78" allow="pedestrian bicycle" oneway="0" width="2.00"/>
    <type id="highway.pedestrian" priority="1" numLanes="1" speed="2.78" allow="pedestrian" oneway="1" width="2.00"/>
    <type id="highway.primary" priority="12" numLanes="2" speed="27.78" disallow="tram rail_urban rail rail_electric rail_fast ship" oneway="0"/>
    <type id="highway.primary_link" priority="7" numLanes="1" speed="22.22" disallow="tram rail_urban rail rail_electric rail_fast ship" oneway="0"/>
    <type id="highway.raceway" priority="15" numLanes="2" speed="83.33" allow="vip" oneway="0"/>
    <type id="highway.residential" priority="3" numLanes="1" speed="13.89" disallow="tram rail_urban rail rail_electric rail_fast ship" oneway="0"/>
    <type id="highway.secondary" priority="11" numLanes="1" speed="27.78" disallow="tram rail_urban rail rail_electric rail_fast ship" oneway="0"/>
    <type id="highway.secondary_link" priority="6" numLanes="1" speed="22.22" disallow="tram rail_urban rail rail_electric rail_fast ship" oneway="0"/>
    <type id="highway.service" priority="1" numLanes="1" speed="5.56" allow="pedestrian delivery bicycle" oneway="0"/>
    <type id="highway.stairs" priority="1" numLanes="1" speed="1.39" allow="pedestrian" oneway="1" width="2.00"/>
    <type id="highway.step" priority="1" numLanes="1" speed="1.39" allow="pedestrian" oneway="1" width="2.00"/>
    <type id="highway.steps" priority="1" numLanes="1" speed="1.39" allow="pedestrian" oneway="1" width="2.00"/>
    <type id="highway.tertiary" priority="10" numLanes="1" speed="22.22" disallow="tram rail_urban rail rail_electric rail_fast ship" oneway="0"/>
    <type id="highway.tertiary_link" priority="5" numLanes="1" speed="22.22" disallow="tram rail_urban rail rail_electric rail_fast ship" oneway="0"/>
    <type id="highway.track" priority="1" numLanes="1" speed="5.56" allow="pedestrian motorcycle moped bicycle" oneway="0"/>
    <type id="highway.trunk" priority="13" numLanes="2" speed="27.78" disallow="pedestrian bicycle tram rail_urban rail rail_electric rail_fast ship" oneway="0"/>
    <type id="highway.trunk_link" priority="8" numLanes="1" speed="22.22" disallow="pedestrian bicycle tram rail_urban rail rail_electric rail_fast ship" oneway="0"/>
    <type id="highway.unclassified" priority="4" numLanes="1" speed="13.89" disallow="tram rail_urban rail rail_electric rail_fast ship" oneway="0"/>
    <type id="highway.unsurfaced" priority="1" numLanes="1" speed="8.33" disallow="tram rail_urban rail rail_electric rail_fast ship" oneway="0"/>
    <type id="railway.highspeed" priority="21" numLanes="1" speed="69.44" allow="rail_fast" oneway="1"/>
    <type id="railway.light_rail" priority="19" numLanes="1" speed="27.78" allow="rail_urban" oneway="1"/>
    <type id="railway.preserved" priority="16" numLanes="1" speed="27.78" allow="rail" oneway="1"/>
    <type id="railway.rail" priority="20" numLanes="1" speed="44.44" allow="rail" oneway="1"/>
    <type id="railway.subway" priority="18" numLanes="1" speed="27.78" allow="rail_urban" oneway="1"/>
    <type id="railway.tram" priority="17" numLanes="1" speed="13.89" allow="tram" oneway="1"/>

    <edge id=":11547181612_0" function="internal">
        <lane id=":11547181612_0_0" index="0" disallow="tram rail_urban rail rail_electric rail_fast ship" speed="3.65" length="4.67" shape="2258.50,420.84 2259.91,420.50 2260.76,420.75 2261.08,421.59 2260.85,423.01"/>
    </edge>
    <edge id=":12947725989_0" function="internal">
        <lane id=":12947725989_0_0" index="0" disallow="tram rail_urban rail rail_electric rail_fast ship" speed="27.78" length="0.10" shape="2768.78,1198.25 2768.78,1198.25"/>
        <lane id=":12947725989_0_1" index="1" disallow="tram rail_urban rail rail_electric rail_fast ship" speed="27.78" length="0.10" shape="2769.49,1195.13 2769.49,1195.13"/>
    </edge>
    <edge id=":12947725990_0" function="internal">
        <lane id=":12947725990_0_0" index="0" disallow="tram rail_urban rail rail_electric rail_fast ship" speed="27.78" length="0.10" shape="2774.85,1178.57 2774.85,1178.57"/>
        <lane id=":12947725990_0_1" index="1" disallow="tram rail_urban rail rail_electric rail_fast ship" speed="27.78" length="0.10" shape="2773.85,1181.61 2773.85,1181.61"/>
    </edge>
    <edge id=":12947750657_0" function="internal">
        <lane id=":12947750657_0_0" index="0" allow="pedestrian delivery bicycle" speed="3.65" length="4.67" shape="1528.81,601.33 1529.16,599.93 1529.78,599.28 1530.66,599.39 1531.82,600.25"/>
    </edge>
    <edge id=":12947750672_0" function="internal">
        <lane id=":12947750672_0_0" index="0" disallow="tram rail_urban rail rail_electric rail_fast ship" speed="22.22" length="0.10" shape="2121.66,1015.61 2121.66,1015.61"/>
    </edge>
    <edge id=":12947750672_1" function="internal">
        <lane id=":12947750672_1_0" index="0" disallow="tram rail_urban rail rail_electric rail_fast ship" speed="22.22" length="0.10" shape="2118.53,1014.94 2118.53,1014.94"/>
    </edge>
    <edge id=":12947750673_0" function="internal">
        <lane id=":12947750673_0_0" index="0" disallow="tram rail_urban rail rail_electric rail_fast ship" speed="27.78" length="0.30" shape="2139.46,1031.04 2139.76,1031.10"/>
        <lane id=":12947750673_0_1" index="1" disallow="tram rail_urban rail rail_electric rail_fast ship" speed="27.78" length="0.30" shape="2138.79,1034.17 2139.08,1034.23"/>
    </edge>
    <edge id=":12947750674_0" function="internal">
        <lane id=":12947750674_0_0" index="0" disallow="tram rail_urban rail rail_electric rail_fast ship" speed="27.78" length="0.10" shape="2135.64,1051.69 2135.64,1051.69"/>
        <lane id=":12947750674_0_1" index="1" disallow="tram rail_urban rail rail_electric rail_fast ship" speed="27.78" length="0.10" shape="2136.35,1048.57 2136.35,1048.57"/>
    </edge>
    <edge id=":12947750676_0" function="internal">
        <lane id=":12947750676_0_0" index="0" disallow="tram rail_urban rail rail_electric rail_fast ship" speed="13.89" length="9.40" shape="1951.60,1033.89 1949.51,1043.06"/>
    </edge>
    <edge id=":12947750676_1" function="internal">
        <lane id=":12947750676_1_0" index="0" allow="pedestrian delivery bicycle" speed="6.84" length="3.28" shape="1951.60,1033.89 1950.58,1036.53 1950.27,1036.86"/>
    </edge>
    <edge id=":12947750676_7" function="internal">
        <lane id=":12947750676_7_0" index="0" allow="pedestrian delivery bicycle" speed="6.84" length="6.99" shape="1950.27,1036.86 1948.97,1038.19 1946.77,1038.87 1943.96,1038.58"/>
    </edge>
    <edge id=":12947750676_2" function="internal">
        <lane id=":12947750676_2_0" index="0" allow="pedestrian delivery bicycle" speed="5.02" length="5.03" shape="1944.74,1035.47 1946.11,1035.62 1947.19,1035.28 1947.98,1034.47 1948.48,1033.18"/>
    </edge>
    <edge id=":12947750676_3" function="internal">
        <lane id=":12947750676_3_0" index="0" allow="pedestrian delivery bicycle" speed="6.92" length="10.17" shape="1944.74,1035.47 1947.34,1036.53 1949.00,1038.14 1949.73,1040.32 1949.51,1043.06"/>
    </edge>
    <edge id=":12947750676_4" function="internal">
        <lane id=":12947750676_4_0" index="0" allow="pedestrian delivery bicycle" speed="3.65" length="4.67" shape="1944.74,1035.47 1945.71,1036.54 1945.90,1037.41 1945.31,1038.09 1943.96,1038.58"/>
    </edge>
    <edge id=":12947750676_5" function="internal">
        <lane id=":12947750676_5_0" index="0" allow="pedestrian delivery bicycle" speed="5.12" length="5.09" shape="1946.39,1042.35 1946.49,1040.99 1946.12,1039.91 1945.28,1039.11 1943.96,1038.58"/>
    </edge>
    <edge id=":12947750676_6" function="internal">
        <lane id=":12947750676_6_0" index="0" disallow="tram rail_urban rail rail_electric rail_fast ship" speed="13.89" length="9.40" shape="1946.39,1042.35 1948.48,1033.18"/>
    </edge>
    <edge id=":12947750677_0" function="internal">
        <lane id=":12947750677_0_0" index="0" allow="pedestrian delivery bicycle" speed="3.65" length="4.67" shape="1849.67,1014.84 1848.70,1013.77 1848.51,1012.90 1849.09,1012.22 1850.45,1011.74"/>
    </edge>
    <edge id=":12954492057_0" function="internal">
        <lane id=":12954492057_0_0" index="0" disallow="tram rail_urban rail rail_electric rail_fast ship" speed="3.65" length="4.67" shape="1973.11,572.05 1971.81,571.44 1971.29,570.71 1971.56,569.86 1972.63,568.89"/>
    </edge>
    <edge id=":12954492058_0" function="internal">
        <lane id=":12954492058_0_0" index="0" disallow="tram rail_urban rail rail_electric rail_fast ship" speed="7.96" length="7.67" shape="2032.34,563.97 2030.56,562.57 2028.81,561.67 2027.10,561.29 2025.41,561.43"/>
    </edge>
    <edge id=":12954492058_1" function="internal">
        <lane id=":12954492058_1_0" index="0" disallow="tram rail_urban rail rail_electric rail_fast ship" speed="11.09" length="11.93" shape="2032.34,563.97 2030.90,562.14 2029.87,559.67 2029.24,556.56 2029.00,552.81"/>
    </edge>
    <edge id=":12954492058_2" function="internal">
        <lane id=":12954492058_2_0" index="0" disallow="tram rail_urban rail rail_electric rail_fast ship" speed="3.72" length="1.53" shape="2032.34,563.97 2032.49,562.45"/>
    </edge>
    <edge id=":12954492058_9" function="internal">
        <lane id=":12954492058_9_0" index="0" disallow="tram rail_urban rail rail_electric rail_fast ship" speed="3.72" length="3.42" shape="2032.49,562.45 2033.04,561.68 2033.98,561.66 2035.33,562.38"/>
    </edge>
    <edge id=":12954492058_3" function="internal">
        <lane id=":12954492058_3_0" index="0" disallow="tram rail_urban rail rail_electric rail_fast ship" speed="10.36" length="10.35" shape="2032.20,552.79 2032.42,555.92 2033.01,558.56 2033.98,560.72 2035.33,562.38"/>
    </edge>
    <edge id=":12954492058_4" function="internal">
        <lane id=":12954492058_4_0" index="0" disallow="tram rail_urban rail rail_electric rail_fast ship" speed="8.07" length="3.33" shape="2032.20,552.79 2031.80,555.96 2031.75,556.07"/>
    </edge>
    <edge id=":12954492058_5" function="internal">
        <lane id=":12954492058_5_0" index="0" disallow="tram rail_urban rail rail_electric rail_fast ship" speed="3.65" length="1.44" shape="2032.20,552.79 2031.41,553.99"/>
    </edge>
    <edge id=":12954492058_10" function="internal">
        <lane id=":12954492058_10_0" index="0" disallow="tram rail_urban rail rail_electric rail_fast ship" speed="8.07" length="8.68" shape="2031.75,556.07 2030.54,558.46 2028.41,560.29 2025.41,561.43"/>
    </edge>
    <edge id=":12954492058_11" function="internal">
        <lane id=":12954492058_11_0" index="0" disallow="tram rail_urban rail rail_electric rail_fast ship" speed="3.65" length="3.23" shape="2031.41,553.99 2030.62,554.40 2029.81,554.01 2029.00,552.81"/>
    </edge>
    <edge id=":12954492058_6" function="internal">
        <lane id=":12954492058_6_0" index="0" disallow="tram rail_urban rail rail_electric rail_fast ship" speed="6.56" length="7.64" shape="2024.68,558.31 2026.59,557.59 2027.94,556.43 2028.75,554.84 2029.00,552.81"/>
    </edge>
    <edge id=":12954492058_7" function="internal">
        <lane id=":12954492058_7_0" index="0" disallow="tram rail_urban rail rail_electric rail_fast ship" speed="9.77" length="11.85" shape="2024.68,558.31 2027.22,558.13 2029.84,558.75 2032.54,560.16 2035.33,562.38"/>
    </edge>
    <edge id=":12954492058_8" function="internal">
        <lane id=":12954492058_8_0" index="0" disallow="tram rail_urban rail rail_electric rail_fast ship" speed="3.65" length="4.67" shape="2024.68,558.31 2026.03,558.82 2026.61,559.51 2026.40,560.38 2025.41,561.43"/>
    </edge>
    <edge id=":1313822921_0" function="internal">
        <lane id=":1313822921_0_0" index="0" disallow="tram rail_urban rail rail_electric rail_fast ship" speed="5.64" length="9.27" shape="1904.77,384.37 1902.49,382.74 1900.66,382.54 1899.30,383.77 1898.40,386.42"/>
    </edge>
    <edge id=":1313822921_1" function="internal">
        <lane id=":1313822921_1_0" index="0" disallow="tram rail_urban rail rail_electric rail_fast ship" speed="13.89" length="15.50" shape="1904.77,384.37 1893.56,373.66"/>
    </edge>
    <edge id=":1313822921_2" function="internal">
        <lane id=":1313822921_2_0" index="0" disallow="tram rail_urban rail rail_electric rail_fast ship" speed="3.65" length="1.44" shape="1904.77,384.37 1904.44,382.97"/>
    </edge>
    <edge id=":1313822921_9" function="internal">
        <lane id=":1313822921_9_0" index="0" disallow="tram rail_urban rail rail_electric rail_fast ship" speed="3.65" length="3.23" shape="1904.44,382.97 1904.69,382.11 1905.53,381.80 1906.95,382.03"/>
    </edge>
    <edge id=":1313822921_3" function="internal">
        <lane id=":1313822921_3_0" index="0" disallow="tram rail_urban rail rail_electric rail_fast ship" speed="13.89" length="15.39" shape="1895.83,371.39 1906.95,382.03"/>
    </edge>
    <edge id=":1313822921_4" function="internal">
        <lane id=":1313822921_4_0" index="0" disallow="tram rail_urban rail rail_electric rail_fast ship" speed="11.20" length="3.39" shape="1895.83,371.39 1897.73,374.07 1897.76,374.17"/>
    </edge>
    <edge id=":1313822921_5" function="internal">
        <lane id=":1313822921_5_0" index="0" disallow="tram rail_urban rail rail_electric rail_fast ship" speed="3.65" length="1.44" shape="1895.83,371.39 1896.11,372.81"/>
    </edge>
    <edge id=":1313822921_10" function="internal">
        <lane id=":1313822921_10_0" index="0" disallow="tram rail_urban rail rail_electric rail_fast ship" speed="11.20" length="12.45" shape="1897.76,374.17 1898.79,377.47 1899.02,381.59 1898.40,386.42"/>
    </edge>
    <edge id=":1313822921_11" function="internal">
        <lane id=":1313822921_11_0" index="0" disallow="tram rail_urban rail rail_electric rail_fast ship" speed="3.65" length="3.23" shape="1896.11,372.81 1895.83,373.66 1894.98,373.94 1893.56,373.66"/>
    </edge>
    <edge id=":1313822921_6" function="internal">
        <lane id=":1313822921_6_0" index="0" disallow="tram rail_urban rail rail_electric rail_fast ship" speed="10.07" length="12.71" shape="1895.26,385.80 1895.81,381.77 1895.71,378.41 1894.96,375.70 1893.56,373.66"/>
    </edge>
    <edge id=":1313822921_7" function="internal">
        <lane id=":1313822921_7_0" index="0" disallow="tram rail_urban rail rail_electric rail_fast ship" speed="7.39" length="17.02" shape="1895.26,385.80 1896.92,380.93 1899.42,378.68 1902.76,379.04 1906.95,382.03"/>
    </edge>
    <edge id=":1313822921_8" function="internal">
        <lane id=":1313822921_8_0" index="0" disallow="tram rail_urban rail rail_electric rail_fast ship" speed="3.65" length="4.67" shape="1895.26,385.80 1896.28,384.78 1897.15,384.54 1897.85,385.09 1898.40,386.42"/>
    </edge>
    <edge id=":1313851996_0" function="internal">
        <lane id=":1313851996_0_0" index="0" disallow="tram rail_urban rail rail_electric rail_fast ship" speed="13.89" length="14.78" shape="2000.60,567.26 1986.09,570.07"/>
    </edge>
    <edge id=":1313851996_1" function="internal">
        <lane id=":1313851996_1_0" index="0" disallow="tram rail_urban rail rail_electric rail_fast ship" speed="7.85" length="4.45" shape="2000.60,567.26 1996.58,567.61 1996.19,567.47"/>
    </edge>
    <edge id=":1313851996_2" function="internal">
        <lane id=":1313851996_2_0" index="0" disallow="tram rail_urban rail rail_electric rail_fast ship" speed="3.65" length="1.44" shape="2000.60,567.26 1999.25,566.75"/>
    </edge>
    <edge id=":1313851996_9" function="internal">
        <lane id=":1313851996_9_0" index="0" disallow="tram rail_urban rail rail_electric rail_fast ship" speed="7.85" length="10.10" shape="1996.19,567.47 1993.52,566.55 1991.43,564.09 1990.30,560.21"/>
    </edge>
    <edge id=":1313851996_10" function="internal">
        <lane id=":1313851996_10_0" index="0" disallow="tram rail_urban rail rail_electric rail_fast ship" speed="3.65" length="3.23" shape="1999.25,566.75 1998.68,566.06 1998.89,565.19 1999.87,564.14"/>
    </edge>
    <edge id=":1313851996_3" function="internal">
        <lane id=":1313851996_3_0" index="0" disallow="tram rail_urban rail rail_electric rail_fast ship" speed="6.32" length="9.04" shape="1993.47,559.76 1994.17,562.17 1995.47,563.70 1997.37,564.36 1999.87,564.14"/>
    </edge>
    <edge id=":1313851996_4" function="internal">
        <lane id=":1313851996_4_0" index="0" disallow="tram rail_urban rail rail_electric rail_fast ship" speed="8.09" length="14.42" shape="1993.47,559.76 1993.48,563.78 1992.26,566.84 1989.80,568.94 1986.09,570.07"/>
    </edge>
    <edge id=":1313851996_5" function="internal">
        <lane id=":1313851996_5_0" index="0" disallow="tram rail_urban rail rail_electric rail_fast ship" speed="3.65" length="4.67" shape="1993.47,559.76 1992.84,561.06 1992.11,561.57 1991.26,561.29 1990.30,560.21"/>
    </edge>
    <edge id=":1313851996_6" function="internal">
        <lane id=":1313851996_6_0" index="0" disallow="tram rail_urban rail rail_electric rail_fast ship" speed="6.62" length="9.30" shape="1985.61,566.91 1987.97,566.18 1989.54,564.82 1990.32,562.83 1990.30,560.21"/>
    </edge>
    <edge id=":1313851996_7" function="internal">
        <lane id=":1313851996_7_0" index="0" disallow="tram rail_urban rail rail_electric rail_fast ship" speed="13.89" length="14.53" shape="1985.61,566.91 1999.87,564.14"/>
    </edge>
    <edge id=":1313851996_8" function="internal">
        <lane id=":1313851996_8_0" index="0" disallow="tram rail_urban rail rail_electric rail_fast ship" speed="3.65" length="1.44" shape="1985.61,566.91 1986.92,567.52"/>
    </edge>
    <edge id=":1313851996_11" function="internal">
        <lane id=":1313851996_11_0" index="0" disallow="tram rail_urban rail rail_electric rail_fast ship" speed="3.65" length="3.23" shape="1986.92,567.52 1987.43,568.25 1987.16,569.10 1986.09,570.07"/>
    </edge>
    <edge id=":1313851998_0" function="internal">
        <lane id=":1313851998_0_0" index="0" disallow="tram rail_urban rail rail_electric rail_fast ship" speed="13.89" length="15.34" shape="1976.16,460.54 1975.61,456.70 1974.81,452.84 1973.46,449.27 1971.24,446.30"/>
    </edge>
    <edge id=":1313851998_1" function="internal">
        <lane id=":1313851998_1_0" index="0" disallow="tram rail_urban rail rail_electric rail_fast ship" speed="7.43" length="19.40" shape="1976.16,460.54 1975.98,454.33 1977.63,451.26 1981.12,451.32 1986.44,454.51"/>
    </edge>
    <edge id=":1313851998_2" function="internal">
        <lane id=":1313851998_2_0" index="0" disallow="tram rail_urban rail rail_electric rail_fast ship" speed="3.65" length="4.67" shape="1976.16,460.54 1976.78,459.24 1977.52,458.73 1978.37,459.01 1979.33,460.09"/>
    </edge>
    <edge id=":1313851998_3" function="internal">
        <lane id=":1313851998_3_0" index="0" disallow="tram rail_urban rail rail_electric rail_fast ship" speed="5.47" length="9.76" shape="1984.50,457.06 1981.82,455.45 1980.07,455.42 1979.24,456.97 1979.33,460.09"/>
    </edge>
    <edge id=":1313851998_4" function="internal">
        <lane id=":1313851998_4_0" index="0" disallow="tram rail_urban rail rail_electric rail_fast ship" speed="13.89" length="17.08" shape="1984.50,457.06 1981.27,454.58 1977.75,451.82 1974.30,448.99 1971.24,446.30"/>
    </edge>
    <edge id=":1313851998_5" function="internal">
        <lane id=":1313851998_5_0" index="0" disallow="tram rail_urban rail rail_electric rail_fast ship" speed="3.65" length="1.44" shape="1984.50,457.06 1984.03,455.69"/>
    </edge>
    <edge id=":1313851998_9" function="internal">
        <lane id=":1313851998_9_0" index="0" disallow="tram rail_urban rail rail_electric rail_fast ship" speed="3.65" length="3.23" shape="1984.03,455.69 1984.20,454.81 1985.00,454.42 1986.44,454.51"/>
    </edge>
    <edge id=":1313851998_6" function="internal">
        <lane id=":1313851998_6_0" index="0" disallow="tram rail_urban rail rail_electric rail_fast ship" speed="13.89" length="16.76" shape="1973.42,443.96 1976.44,446.62 1979.81,449.38 1983.25,452.06 1986.44,454.51"/>
    </edge>
    <edge id=":1313851998_7" function="internal">
        <lane id=":1313851998_7_0" index="0" disallow="tram rail_urban rail rail_electric rail_fast ship" speed="13.89" length="3.29" shape="1973.42,443.96 1975.36,446.62"/>
    </edge>
    <edge id=":1313851998_8" function="internal">
        <lane id=":1313851998_8_0" index="0" disallow="tram rail_urban rail rail_electric rail_fast ship" speed="3.65" length="1.44" shape="1973.42,443.96 1973.76,445.36"/>
    </edge>
    <edge id=":1313851998_10" function="internal">
        <lane id=":1313851998_10_0" index="0" disallow="tram rail_urban rail rail_electric rail_fast ship" speed="13.89" length="14.14" shape="1975.36,446.62 1975.79,447.22 1977.49,451.45 1978.62,455.96 1979.33,460.09"/>
    </edge>
    <edge id=":1313851998_11" function="internal">
        <lane id=":1313851998_11_0" index="0" disallow="tram rail_urban rail rail_electric rail_fast ship" speed="3.65" length="3.23" shape="1973.76,445.36 1973.50,446.22 1972.67,446.53 1971.24,446.30"/>
    </edge>
    <edge id=":1313853434_0" function="internal">
        <lane id=":1313853434_0_0" index="0" disallow="tram rail_urban rail rail_electric rail_fast ship" speed="5.54" length="9.44" shape="1862.90,591.44 1860.80,589.41 1859.06,588.97 1857.69,590.13 1856.69,592.88"/>
    </edge>
    <edge id=":1313853434_1" function="internal">
        <lane id=":1313853434_1_0" index="0" disallow="tram rail_urban rail rail_electric rail_fast ship" speed="12.35" length="16.51" shape="1862.90,591.44 1859.86,587.21 1857.87,583.31 1856.91,579.75 1856.99,576.52"/>
    </edge>
    <edge id=":1313853434_2" function="internal">
        <lane id=":1313853434_2_0" index="0" disallow="tram rail_urban rail rail_electric rail_fast ship" speed="3.65" length="4.67" shape="1862.90,591.44 1862.77,590.00 1863.14,589.19 1864.01,589.00 1865.39,589.43"/>
    </edge>
    <edge id=":1313853434_3" function="internal">
        <lane id=":1313853434_3_0" index="0" disallow="tram rail_urban rail rail_electric rail_fast ship" speed="11.29" length="13.72" shape="1860.13,577.14 1860.11,579.65 1860.99,582.54 1862.74,585.80 1865.39,589.43"/>
    </edge>
    <edge id=":1313853434_4" function="internal">
        <lane id=":1313853434_4_0" index="0" disallow="tram rail_urban rail rail_electric rail_fast ship" speed="13.89" length="16.11" shape="1860.13,577.14 1856.69,592.88"/>
    </edge>
    <edge id=":1313853434_5" function="internal">
        <lane id=":1313853434_5_0" index="0" disallow="tram rail_urban rail rail_electric rail_fast ship" speed="3.65" length="1.44" shape="1860.13,577.14 1859.11,578.16"/>
    </edge>
    <edge id=":1313853434_9" function="internal">
        <lane id=":1313853434_9_0" index="0" disallow="tram rail_urban rail rail_electric rail_fast ship" speed="3.65" length="3.23" shape="1859.11,578.16 1858.25,578.40 1857.54,577.85 1856.99,576.52"/>
    </edge>
    <edge id=":1313853434_6" function="internal">
        <lane id=":1313853434_6_0" index="0" disallow="tram rail_urban rail rail_electric rail_fast ship" speed="13.89" length="16.01" shape="1853.57,592.16 1856.99,576.52"/>
    </edge>
    <edge id=":1313853434_7" function="internal">
        <lane id=":1313853434_7_0" index="0" disallow="tram rail_urban rail rail_electric rail_fast ship" speed="7.38" length="5.31" shape="1853.57,592.16 1855.38,587.17"/>
    </edge>
    <edge id=":1313853434_8" function="internal">
        <lane id=":1313853434_8_0" index="0" disallow="tram rail_urban rail rail_electric rail_fast ship" speed="3.65" length="1.44" shape="1853.57,592.16 1854.62,591.17"/>
    </edge>
    <edge id=":1313853434_10" function="internal">
        <lane id=":1313853434_10_0" index="0" disallow="tram rail_urban rail rail_electric rail_fast ship" speed="7.38" length="12.64" shape="1855.38,587.17 1855.47,586.93 1858.08,584.73 1861.38,585.56 1865.39,589.43"/>
    </edge>
    <edge id=":1313853434_11" function="internal">
        <lane id=":1313853434_11_0" index="0" disallow="tram rail_urban rail rail_electric rail_fast ship" speed="3.65" length="3.23" shape="1854.62,591.17 1855.49,590.96 1856.18,591.53 1856.69,592.88"/>
    </edge>
    <edge id=":1313854064_0" function="internal">
        <lane id=":1313854064_0_0" index="0" disallow="tram rail_urban rail rail_electric rail_fast ship" speed="6.44" length="9.03" shape="1818.79,772.11 1816.32,771.90 1814.39,772.55 1813.02,774.04 1812.19,776.39"/>
    </edge>
    <edge id=":1313854064_1" function="internal">
        <lane id=":1313854064_1_0" index="0" allow="pedestrian delivery bicycle" speed="9.72" length="11.95" shape="1818.79,772.11 1807.11,769.58"/>
    </edge>
    <edge id=":1313854064_2" function="internal">
        <lane id=":1313854064_2_0" index="0" disallow="tram rail_urban rail rail_electric rail_fast ship" speed="7.95" length="14.31" shape="1818.79,772.11 1815.12,770.69 1812.82,768.44 1811.90,765.36 1812.35,761.45"/>
    </edge>
    <edge id=":1313854064_3" function="internal">
        <lane id=":1313854064_3_0" index="0" disallow="tram rail_urban rail rail_electric rail_fast ship" speed="3.65" length="4.67" shape="1818.79,772.11 1817.80,771.06 1817.59,770.19 1818.16,769.50 1819.51,768.99"/>
    </edge>
    <edge id=":1313854064_4" function="internal">
        <lane id=":1313854064_4_0" index="0" disallow="tram rail_urban rail rail_electric rail_fast ship" speed="6.44" length="9.03" shape="1815.44,762.26 1815.16,764.73 1815.74,766.68 1817.19,768.10 1819.51,768.99"/>
    </edge>
    <edge id=":1313854064_5" function="internal">
        <lane id=":1313854064_5_0" index="0" disallow="tram rail_urban rail rail_electric rail_fast ship" speed="13.89" length="14.50" shape="1815.44,762.26 1812.19,776.39"/>
    </edge>
    <edge id=":1313854064_6" function="internal">
        <lane id=":1313854064_6_0" index="0" allow="pedestrian delivery bicycle" speed="7.51" length="4.29" shape="1815.44,762.26 1814.17,764.99 1813.35,765.97"/>
    </edge>
    <edge id=":1313854064_7" function="internal">
        <lane id=":1313854064_7_0" index="0" disallow="tram rail_urban rail rail_electric rail_fast ship" speed="3.65" length="1.44" shape="1815.44,762.26 1814.36,763.22"/>
    </edge>
    <edge id=":1313854064_16" function="internal">
        <lane id=":1313854064_16_0" index="0" allow="pedestrian delivery bicycle" speed="7.51" length="7.49" shape="1813.35,765.97 1812.07,767.48 1809.57,769.19 1807.11,769.58"/>
    </edge>
    <edge id=":1313854064_17" function="internal">
        <lane id=":1313854064_17_0" index="0" disallow="tram rail_urban rail rail_electric rail_fast ship" speed="3.65" length="3.23" shape="1814.36,763.22 1813.49,763.40 1812.81,762.81 1812.35,761.45"/>
    </edge>
    <edge id=":1313854064_8" function="internal">
        <lane id=":1313854064_8_0" index="0" allow="pedestrian delivery bicycle" speed="6.12" length="7.49" shape="1807.73,766.44 1809.20,766.36 1810.46,765.50 1811.50,763.86 1812.35,761.45"/>
    </edge>
    <edge id=":1313854064_9" function="internal">
        <lane id=":1313854064_9_0" index="0" allow="pedestrian delivery bicycle" speed="9.72" length="12.05" shape="1807.73,766.44 1819.51,768.99"/>
    </edge>
    <edge id=":1313854064_10" function="internal">
        <lane id=":1313854064_10_0" index="0" allow="pedestrian delivery bicycle" speed="7.31" length="11.66" shape="1807.73,766.44 1809.83,767.75 1811.39,770.30 1812.23,773.41 1812.19,776.39"/>
    </edge>
    <edge id=":1313854064_11" function="internal">
        <lane id=":1313854064_11_0" index="0" allow="pedestrian delivery bicycle" speed="3.65" length="4.67" shape="1807.73,766.44 1808.76,767.45 1808.99,768.32 1808.45,769.02 1807.11,769.58"/>
    </edge>
    <edge id=":1313854064_12" function="internal">