<?xml version="1.0" encoding="UTF-8"?>

<!-- generated on 2025-06-27 17:36:12.731184 by randomTrips.py UNKNOWN
<configuration>
    <net-file value="./data/map.net.xml"/>
    <route-file value="./data/route.rou.xml"/>
    <trip-attributes value="departLane=&quot;best&quot;"/>
    <end value="200.0"/>
</configuration>
-->

<!-- generated on 2025-06-27 17:36:12 by Eclipse SUMO duarouter Version 1.13.0
<configuration xmlns:xsi="http://www.w3.org/2001/XMLSchema-instance" xsi:noNamespaceSchemaLocation="http://sumo.dlr.de/xsd/duarouterConfiguration.xsd">

    <input>
        <net-file value="./data/map.net.xml"/>
        <route-files value="trips.trips.xml"/>
    </input>

    <output>
        <output-file value="./data/route.rou.xml"/>
        <alternatives-output value="NUL"/>
    </output>

    <time>
        <begin value="0"/>
        <end value="200.0"/>
    </time>

    <report>
        <no-warnings value="true"/>
        <ignore-errors value="true"/>
        <no-step-log value="true"/>
    </report>

</configuration>
-->

<routes xmlns:xsi="http://www.w3.org/2001/XMLSchema-instance" xsi:noNamespaceSchemaLocation="http://sumo.dlr.de/xsd/routes_file.xsd">
    <vehicle id="0" depart="0.00" departLane="best">
        <route edges="37372750#1 37375363#0 37375363#1 -249168789#4 -116565244#1 -116565244#0 116564899#2 -116564899#2"/>
    </vehicle>
    <vehicle id="1" depart="1.00" departLane="best">
        <route edges="-37417655#1 -37417651#3 -37417651#2"/>
    </vehicle>
    <vehicle id="4" depart="4.00" departLane="best">
        <route edges="-997370398 -116565244#0 116564899#2 -116564899#2"/>
    </vehicle>
    <vehicle id="5" depart="5.00" departLane="best">
        <route edges="-37417651#3 1409808438#0"/>
    </vehicle>
    <vehicle id="6" depart="6.00" departLane="best">
        <route edges="-116564899#2 -116564899#1 -116564899#0 -37417651#0"/>
    </vehicle>
    <vehicle id="7" depart="7.00" departLane="best">
        <route edges="37372759#0 37375363#1 -249168789#4 -249168789#3 -249168789#2 249168789#2"/>
    </vehicle>
    <vehicle id="8" depart="8.00" departLane="best">
        <route edges="-37417651#3 37417651#3 37417651#4 -249168789#4 -249168789#3 -249168789#2 34907371#0 34907371#1"/>
    </vehicle>
    <vehicle id="9" depart="9.00" departLane="best">
        <route edges="37417682#1 -37417682#1 -116565244#2 -116565244#1 -116565244#0 -116564899#1 -116564899#0"/>
    </vehicle>
    <vehicle id="10" depart="10.00" departLane="best">
        <route edges="37417682#0 -116565244#2 249168789#4 -37417651#4 -37417651#3 -37417651#2 37417651#2"/>
    </vehicle>
    <vehicle id="11" depart="11.00" departLane="best">
        <route edges="-37730078 -37730069#2 -37730069#1 -37730069#0 37372750#1 37375363#0 37375363#1 -249168789#4"/>
    </vehicle>
    <vehicle id="13" depart="13.00" departLane="best">
        <route edges="-1165942206#1 -1165942206#0"/>
    </vehicle>
    <vehicle id="14" depart="14.00" departLane="best">
        <route edges="434722685#0 434722685#1 434722685#2 249168789#1 34907371#0 34907371#1 34907371#2 34907371#3"/>
    </vehicle>
    <vehicle id="15" depart="15.00" departLane="best">
        <route edges="37417682#1 -37417682#1 -37417682#0 -37417651#5 37417651#5"/>
    </vehicle>
    <vehicle id="18" depart="18.00" departLane="best">
        <route edges="37730069#1 -37730069#1 -37730069#0 37372750#1"/>
    </vehicle>
    <vehicle id="19" depart="19.00" departLane="best">
        <route edges="434722685#1 434722685#2 249168789#1 34907371#0"/>
    </vehicle>
    <vehicle id="20" depart="20.00" departLane="best">
        <route edges="37417651#0 37417651#1 37417651#2 37417651#3 37417655#1 -116565137"/>
    </vehicle>
    <vehicle id="21" depart="21.00" departLane="best">
        <route edges="-37417651#4 37417651#4 -249168789#4 116565244#2 -37417682#0"/>
    </vehicle>
    <vehicle id="22" depart="22.00" departLane="best">
        <route edges="-116565244#2 249168789#4 -37417651#4 -37417651#3"/>
    </vehicle>
    <vehicle id="27" depart="27.00" departLane="best">
        <route edges="37372759#0 37375363#1 -249168789#4 -249168789#3 -249168789#2 34907371#0 34907371#1 34907371#2 34907371#3"/>
    </vehicle>
    <vehicle id="28" depart="28.00" departLane="best">
        <route edges="-249168789#4 249168789#4 37417651#5"/>
    </vehicle>
    <vehicle id="29" depart="29.00" departLane="best">
        <route edges="-249168789#4 -116565244#1 997370398 -997370398"/>
    </vehicle>
    <vehicle id="30" depart="30.00" departLane="best">
        <route edges="997370398 434722741#2 249168789#2 249168789#3 249168789#4 -37375363#1 37372759#1"/>
    </vehicle>
    <vehicle id="31" depart="31.00" departLane="best">
        <route edges="249168789#1 249168789#2 249168789#3 249168789#4 -37417651#4 -37417651#3 -37417651#2 -37417651#1 37417651#1"/>
    </vehicle>
    <vehicle id="32" depart="32.00" departLane="best">
        <route edges="37730069#2 -37730069#2 -37730069#1 -37730069#0 37372750#1 37375363#0 37375363#1 -249168789#4 116565244#2 37417682#1"/>
    </vehicle>
    <vehicle id="33" depart="33.00" departLane="best">
        <route edges="-37417651#4 -37417651#3 1409808438#0 -116565033"/>
    </vehicle>
    <vehicle id="34" depart="34.00" departLane="best">
        <route edges="-37730069#1 -37730069#0 37372750#1 37375363#0 37372759#1 37417655#0 -37417655#0"/>
    </vehicle>
    <vehicle id="38" depart="38.00" departLane="best">
        <route edges="434722741#1 -997370398 -116565244#0 116565244#0"/>
    </vehicle>
    <vehicle id="39" depart="39.00" departLane="best">
        <route edges="-37417655#0 37417655#0 37417651#4 37417651#5 -37417651#5"/>
    </vehicle>
    <vehicle id="40" depart="40.00" departLane="best">
        <route edges="249168789#2 249168789#3 116565244#2 116565244#3 -37417651#6"/>
    </vehicle>
    <vehicle id="44" depart="44.00" departLane="best">
        <route edges="-116565244#3 -116565244#2 249168789#4 -37417651#4 37417655#1 -116565137"/>
    </vehicle>
    <vehicle id="45" depart="45.00" departLane="best">
        <route edges="-1409808438#0 37417651#3 37417651#4 -37375363#1 -37375363#0 37372750#2"/>
    </vehicle>
    <vehicle id="46" depart="46.00" departLane="best">
        <route edges="37417655#1 -116565137 116564899#1 116564899#2"/>
    </vehicle>
    <vehicle id="47" depart="47.00" departLane="best">
        <route edges="-116565244#1 997370398 -997370398"/>
    </vehicle>
    <vehicle id="50" depart="50.00" departLane="best">
        <route edges="-116564899#1 116565137 -37417655#1 37417651#4"/>
    </vehicle>
    <vehicle id="51" depart="51.00" departLane="best">
        <route edges="37375363#0 37375363#1 -249168789#4 -249168789#3 -249168789#2 -249168789#1 249168789#1"/>
    </vehicle>
    <vehicle id="52" depart="52.00" departLane="best">
        <route edges="-37417655#1 37417651#4 -37375363#1 37372759#1"/>
    </vehicle>
    <vehicle id="53" depart="53.00" departLane="best">
        <route edges="-1409808438#0 -37417651#2 116565033"/>
    </vehicle>
    <vehicle id="55" depart="55.00" departLane="best">
        <route edges="434722685#2 249168789#1 249168789#2 249168789#3 116565244#2 116565244#3 -37417651#6"/>
    </vehicle>
    <vehicle id="56" depart="56.00" departLane="best">
        <route edges="116565244#2 -116565244#2 249168789#4 -37375363#1 -37375363#0"/>
    </vehicle>
    <vehicle id="58" depart="58.00" departLane="best">
        <route edges="-37730069#0 37372750#1 37375363#0 37372759#1"/>
    </vehicle>
    <vehicle id="59" depart="59.00" departLane="best">
        <route edges="34907371#1 -37417682#1 -116565244#2 -249168789#3"/>
    </vehicle>
    <vehicle id="60" depart="60.00" departLane="best">
        <route edges="37417651#5 -37417651#5 -249168789#4 -249168789#3 -249168789#2 -249168789#1 249168789#1"/>
    </vehicle>
    <vehicle id="61" depart="61.00" departLane="best">
        <route edges="37417655#0 37417651#4 -249168789#4 -249168789#3 -249168789#2 -249168789#1 -249168789#0 -37375327 37375327 249168789#0"/>
    </vehicle>
    <vehicle id="65" depart="65.00" departLane="best">
        <route edges="-37730069#1 -37730069#0 37372750#1 37375363#0 37375363#1 -249168789#4 -116565244#1 -116565244#0"/>
    </vehicle>
    <vehicle id="67" depart="67.00" departLane="best">
        <route edges="-116565244#3 116565244#3"/>
    </vehicle>
    <vehicle id="68" depart="68.00" departLane="best">
        <route edges="-116565244#1 116565244#1 249168789#4 -37417651#4 37417655#1"/>
    </vehicle>
    <vehicle id="69" depart="69.00" departLane="best">
        <route edges="37417651#6 -116565244#3 -116565244#2 -249168789#3 -249168789#2 -249168789#1"/>
    </vehicle>
    <vehicle id="70" depart="70.00" departLane="best">
        <route edges="116565137 -37417655#1 37417651#4 -249168789#4 -249168789#3 -249168789#2 249168789#2"/>
    </vehicle>
    <vehicle id="72" depart="72.00" departLane="best">
        <route edges="-997370398 116565244#1 249168789#4 -37417651#4 -37417651#3 -37417651#2 -37417651#1"/>
    </vehicle>
    <vehicle id="73" depart="73.00" departLane="best">
        <route edges="1409808438#0 -1409808438#0 37417651#3 37417651#4 37417651#5"/>
    </vehicle>
    <vehicle id="76" depart="76.00" departLane="best">
        <route edges="116564899#0 116565137 -37417655#1 -37417651#3 1409808438#0 1409808438#1"/>
    </vehicle>
    <vehicle id="77" depart="77.00" departLane="best">
        <route edges="-1409808438#1 -1409808438#0 37417651#3 -37417651#3"/>
    </vehicle>
    <vehicle id="78" depart="78.00" departLane="best">
        <route edges="-37730078 -37730069#2 -37730069#1 -37730069#0 37372750#1 37375363#0 37375363#1 -249168789#4 -249168789#3 -249168789#2 34907371#0 34907371#1"/>
    </vehicle>
    <vehicle id="79" depart="79.00" departLane="best">
        <route edges="-37417651#4 -37417651#3 -37417651#2"/>
    </vehicle>
    <vehicle id="80" depart="80.00" departLane="best">
        <route edges="-116565244#1 116565244#1 249168789#4 -37375363#1 -37375363#0 37372750#2"/>
    </vehicle>
    <vehicle id="82" depart="82.00" departLane="best">
        <route edges="434722685#1 434722685#2 249168789#1 249168789#2 249168789#3 -116565244#1"/>
    </vehicle>
    <vehicle id="83" depart="83.00" departLane="best">
        <route edges="-37417651#5 -37375363#1 37375363#1"/>
    </vehicle>
    <vehicle id="84" depart="84.00" departLane="best">
        <route edges="-37417651#2 37417651#2 37417651#3 37417651#4 -249168789#4 -249168789#3 -249168789#2 -249168789#1"/>
    </vehicle>
    <vehicle id="86" depart="86.00" departLane="best">
        <route edges="116565137 -37417655#1 37417651#4 -249168789#4 116565244#2 37417682#1"/>
    </vehicle>
    <vehicle id="87" depart="87.00" departLane="best">
        <route edges="37417682#1 -37417682#1 -116565244#2 249168789#4 -37375363#1"/>
    </vehicle>
    <vehicle id="89" depart="89.00" departLane="best">
        <route edges="-997370398 116565244#1"/>
    </vehicle>
    <vehicle id="90" depart="90.00" departLane="best">
        <route edges="37417651#2 37417651#3 37417651#4 -37375363#1 37375363#1"/>
    </vehicle>
    <vehicle id="92" depart="92.00" departLane="best">
        <route edges="-986554300#2 986554300#2 986554299 -986554299"/>
    </vehicle>
    <vehicle id="93" depart="93.00" departLane="best">
        <route edges="434722685#1 434722685#2 249168789#1 34907371#0 34907371#1 -37417682#1 -37417682#0 -37417651#5"/>
    </vehicle>
    <vehicle id="94" depart="94.00" departLane="best">
        <route edges="-37375363#1 37372759#1 37417655#0 37417655#1 -116565137 116565137"/>
    </vehicle>
    <vehicle id="95" depart="95.00" departLane="best">
        <route edges="-997370398 -116565244#0 -116564899#1 116565137 -37417655#1"/>
    </vehicle>
    <vehicle id="96" depart="96.00" departLane="best">
        <route edges="-37417651#6 37417682#0 -116565244#2 -116565244#1 997370398 434722741#2"/>
    </vehicle>
    <vehicle id="98" depart="98.00" departLane="best">
        <route edges="249168789#0 249168789#1 249168789#2 249168789#3 249168789#4 -37417651#4 37417655#1 -116565137"/>
    </vehicle>
    <vehicle id="101" depart="101.00" departLane="best">
        <route edges="434722685#0 434722685#1 434722685#2 -249168789#0 -37375327"/>
    </vehicle>
    <vehicle id="102" depart="102.00" departLane="best">
        <route edges="116565244#0 116565244#1 249168789#4 -37417651#4 -37417651#3 -37417651#2 -37417651#1"/>
    </vehicle>
    <vehicle id="104" depart="104.00" departLane="best">
        <route edges="-986554300#0 986554300#0 986554300#1 986554300#2 986554300#3"/>
    </vehicle>
    <vehicle id="105" depart="105.00" departLane="best">
        <route edges="-37417655#0 37417655#0 37417651#4 -249168789#4 116565244#2 37417682#1"/>
    </vehicle>
    <vehicle id="106" depart="106.00" departLane="best">
        <route edges="116564899#2"/>
    </vehicle>
    <vehicle id="108" depart="108.00" departLane="best">
        <route edges="249168789#1 249168789#2 249168789#3 249168789#4 -37417651#4 37417651#4"/>
    </vehicle>
    <vehicle id="109" depart="109.00" departLane="best">
        <route edges="-249168789#3 -249168789#2 34907371#0 34907371#1 -37417682#1"/>
    </vehicle>
    <vehicle id="111" depart="111.00" departLane="best">
        <route edges="249168789#0 249168789#1 249168789#2 249168789#3 249168789#4 -37375363#1 37372759#1 37417655#0"/>
    </vehicle>
    <vehicle id="112" depart="112.00" departLane="best">
        <route edges="-116565244#0 116564899#2 434722741#1 434722741#2 34907371#0 34907371#1"/>
    </vehicle>
    <vehicle id="115" depart="115.00" departLane="best">
        <route edges="-116565244#2 249168789#4 -37375363#1"/>
    </vehicle>
    <vehicle id="117" depart="117.00" departLane="best">
        <route edges="-37417651#5 -249168789#4 -249168789#3 -249168789#2 -249168789#1 -249168789#0"/>
    </vehicle>
    <vehicle id="120" depart="120.00" departLane="best">
        <route edges="-997370398 997370398 434722741#2 34907371#0 34907371#1"/>
    </vehicle>
    <vehicle id="122" depart="122.00" departLane="best">
        <route edges="-37417651#2 37417651#2 37417651#3 37417651#4"/>
    </vehicle>
    <vehicle id="124" depart="124.00" departLane="best">
        <route edges="37375327 249168789#0 249168789#1 34907371#0 34907371#1 -37417682#1"/>
    </vehicle>
    <vehicle id="125" depart="125.00" departLane="best">
        <route edges="-37730069#1 -37730069#0 37372750#1 37375363#0 37372759#1 37417655#0"/>
    </vehicle>
    <vehicle id="126" depart="126.00" departLane="best">
        <route edges="-116565244#2 -116565244#1 -116565244#0 116565244#0"/>
    </vehicle>
    <vehicle id="128" depart="128.00" departLane="best">
        <route edges="-116565244#2 249168789#4 -37417651#4 -37417651#3 -37417651#2 -37417651#1"/>
    </vehicle>
    <vehicle id="132" depart="132.00" departLane="best">
        <route edges="37730069#1 -37730069#1 -37730069#0 37372750#1 37375363#0 37372759#1 37417655#0 -37417651#3 -37417651#2 37417651#2"/>
    </vehicle>
    <vehicle id="134" depart="134.00" departLane="best">
        <route edges="37372759#1 37417655#0 37417655#1 -116565137 -116564899#0"/>
    </vehicle>
    <vehicle id="135" depart="135.00" departLane="best">
        <route edges="37730069#0 -37730069#0 37372750#1 37375363#0 37375363#1 -249168789#4 -249168789#3 -249168789#2 34907371#0 34907371#1 -37417682#1"/>
    </vehicle>
    <vehicle id="137" depart="137.00" departLane="best">
        <route edges="-249168789#1 -249168789#0"/>
    </vehicle>
    <vehicle id="138" depart="138.00" departLane="best">
        <route edges="-1409808438#0 37417651#3 37417651#4 -249168789#4 -249168789#3 -249168789#2 249168789#2 249168789#3"/>
    </vehicle>
    <vehicle id="139" depart="139.00" departLane="best">
        <route edges="-37417655#1 37417651#4 -249168789#4 -249168789#3 -249168789#2 34907371#0 34907371#1 34907371#2 34907371#3"/>
    </vehicle>
    <vehicle id="140" depart="140.00" departLane="best">
        <route edges="37417651#1 -37417651#1 -37417651#0"/>
    </vehicle>
    <vehicle id="141" depart="141.00" departLane="best">
        <route edges="37372750#1 37375363#0 37375363#1 -249168789#4 116565244#2 116565244#3 -37417651#6"/>
    </vehicle>
    <vehicle id="144" depart="144.00" departLane="best">
        <route edges="-997370398 -116565244#0 -116564899#1 116565137 -37417655#1"/>
    </vehicle>
    <vehicle id="145" depart="145.00" departLane="best">
        <route edges="-116564899#0 37417651#1 37417651#2 37417651#3 37417651#4 37417651#5 37417682#0"/>
    </vehicle>
    <vehicle id="146" depart="146.00" departLane="best">
        <route edges="37372750#1 37375363#0 37375363#1 -249168789#4 116565244#2 116565244#3 -37417651#6"/>
    </vehicle>
    <vehicle id="147" depart="147.00" departLane="best">
        <route edges="37417651#3 37417651#4 -249168789#4 -249168789#3 -249168789#2 249168789#2 249168789#3"/>
    </vehicle>
    <vehicle id="148" depart="148.00" departLane="best">
        <route edges="-997370398 -116565244#0 -116564899#1 -116564899#0"/>
    </vehicle>
    <vehicle id="149" depart="149.00" departLane="best">
        <route edges="-116565244#2 -249168789#3 -249168789#2 -249168789#1 434722685#3"/>
    </vehicle>
    <vehicle id="150" depart="150.00" departLane="best">
        <route edges="434722741#0 434722741#1 434722741#2 249168789#2"/>
    </vehicle>
    <vehicle id="151" depart="151.00" departLane="best">
        <route edges="37730069#1 -37730069#1 -37730069#0 37372750#1 37375363#0 37375363#1 -249168789#4 -249168789#3 -249168789#2 34907371#0 34907371#1"/>
    </vehicle>
    <vehicle id="152" depart="152.00" departLane="best">
        <route edges="-249168789#2 -249168789#1"/>
    </vehicle>
    <vehicle id="155" depart="155.00" departLane="best">
        <route edges="434722741#0 434722741#1 434722741#2 249168789#2 249168789#3 249168789#4 -37417651#4 -37417651#3 -37417651#2 -37417651#1"/>
    </vehicle>
    <vehicle id="156" depart="156.00" departLane="best">
        <route edges="-37417651#6 -37417651#5 -37417651#4 -37417651#3 1409808438#0 -1409808438#0"/>
    </vehicle>
    <vehicle id="157" depart="157.00" departLane="best">
        <route edges="37417655#0 37417651#4 -249168789#4 -249168789#3 -249168789#2 -249168789#1 434722685#3"/>
    </vehicle>
    <vehicle id="161" depart="161.00" departLane="best">
        <route edges="37417682#1 -37417682#1 -116565244#2 -249168789#3 -249168789#2 -249168789#1 434722685#3"/>
    </vehicle>
    <vehicle id="162" depart="162.00" departLane="best">
        <route edges="-116564899#2 116565244#0 116565244#1 249168789#4 37417651#5 37417651#6"/>
    </vehicle>
    <vehicle id="165" depart="165.00" departLane="best">
        <route edges="37417682#1 -37417682#1 -116565244#2 249168789#4 -37417651#4 -37417655#0"/>
    </vehicle>
    <vehicle id="166" depart="166.00" departLane="best">
        <route edges="37417655#1 -116565137 116565137 -37417655#1 -37417651#3 1409808438#0 -1409808438#0"/>
    </vehicle>
    <vehicle id="169" depart="169.00" departLane="best">
        <route edges="116565033 -1409808438#0 37417651#3 37417651#4 -249168789#4 -249168789#3 -249168789#2 34907371#0 34907371#1 -37417682#1"/>
    </vehicle>
    <vehicle id="170" depart="170.00" departLane="best">
        <route edges="37417655#1 -116565137 116565137 -37417655#1 -37417651#3"/>
    </vehicle>
    <vehicle id="171" depart="171.00" departLane="best">
        <route edges="-116564899#2 116565244#0 116565244#1 249168789#4 -37375363#1"/>
    </vehicle>
    <vehicle id="174" depart="174.00" departLane="best">
        <route edges="37372750#1 37375363#0 37372759#1 37417655#0 -37417651#3 -37417651#2 -37417651#1 116564899#0"/>
    </vehicle>
    <vehicle id="175" depart="175.00" departLane="best">
        <route edges="997370398 434722741#2 -249168789#1 249168789#1"/>
    </vehicle>
    <vehicle id="179" depart="179.00" departLane="best">
        <route edges="-1409808438#0 -37417651#2 116565033"/>
    </vehicle>
    <vehicle id="181" depart="181.00" departLane="best">
        <route edges="34907371#1 -37417682#1 -116565244#2 249168789#4 -37417651#4 -37417651#3 1409808438#0 1409808438#1"/>
    </vehicle>
    <vehicle id="183" depart="183.00" departLane="best">
        <route edges="-37417651#6 -37417651#5 -37417651#4 -37417651#3 37417651#3"/>
    </vehicle>
    <vehicle id="184" depart="184.00" departLane="best">
        <route edges="-116564899#0 116564899#0 116564899#1 116564899#2 434722741#1 434722741#2"/>
    </vehicle>
    <vehicle id="185" depart="185.00" departLane="best">
        <route edges="1409808438#0 -1409808438#0 37417651#3 37417651#4"/>
    </vehicle>
    <vehicle id="186" depart="186.00" departLane="best">
        <route edges="37417651#3 37417651#4 -37375363#1 37375363#1"/>
    </vehicle>
    <vehicle id="187" depart="187.00" departLane="best">
        <route edges="-37730082 -37730069#0 37372750#1 37375363#0 37375363#1 -249168789#4 -116565244#1"/>
    </vehicle>
    <vehicle id="189" depart="189.00" departLane="best">
        <route edges="-37730069#1 37730082"/>
    </vehicle>
    <vehicle id="190" depart="190.00" departLane="best">
        <route edges="37417651#1 37417651#2 37417651#3 37417651#4 -249168789#4 -249168789#3 -249168789#2 34907371#0 34907371#1 -37417682#1"/>
    </vehicle>
    <vehicle id="191" depart="191.00" departLane="best">
        <route edges="-37730069#1 -37730069#0 37372750#1 37375363#0 37372759#1 37417655#0 37417655#1 -116565137 116564899#1"/>
    </vehicle>
    <vehicle id="193" depart="193.00" departLane="best">
        <route edges="-249168789#0 -37375327 37375327 249168789#0 249168789#1 249168789#2 249168789#3 -116565244#1 -116565244#0 116564899#2"/>
    </vehicle>
    <vehicle id="196" depart="196.00" departLane="best">
        <route edges="-37730069#0 37372750#1 37375363#0 37375363#1 -249168789#4 -249168789#3 -249168789#2 249168789#2"/>
    </vehicle>
    <vehicle id="197" depart="197.00" departLane="best">
        <route edges="-116564899#0 37417651#1 37417651#2 37417651#3 37417651#4 -249168789#4 116565244#2 -37417682#0"/>
    </vehicle>
    <vehicle id="198" depart="198.00" departLane="best">
        <route edges="116564899#0 116564899#1 116564899#2 434722741#1 434722741#2 34907371#0"/>
    </vehicle>
    <vehicle id="199" depart="199.00" departLane="best">
        <route edges="37372759#1 37417655#0 37417651#4 -249168789#4 -116565244#1 116565244#1"/>
    </vehicle>
</routes>
