<configuration>
    <input>
        <net-file value="./map.net.xml"/>
        <route-files value="./route.rou.xml"/>
    </input>
    <time>
        <end value="200"/>
    </time>
    <output>
        <fcd-output value="./output_fcd.xml"/>
    </output>
    </configuration>
    